
     RDKit          3D

 28 27  0  0  0  0  0  0  0  0999 V2000
   -0.2703    2.4815    0.5532 O   0  0  0  0  0  0  0  0  0  0  0  0
   -0.0486    1.7920   -0.6398 C   0  0  0  0  0  0  0  0  0  0  0  0
    0.1642    0.3278   -0.2918 C   0  0  0  0  0  0  0  0  0  0  0  0
   -1.0677   -0.1897    0.3877 C   0  0  0  0  0  0  0  0  0  0  0  0
   -2.2957   -0.1253   -0.4257 C   0  0  0  0  0  0  0  0  0  0  0  0
   -2.4089    0.2098   -1.5768 O   0  0  0  0  0  0  0  0  0  0  0  0
   -3.5723   -0.5289    0.2684 C   0  0  0  0  0  0  0  0  0  0  0  0
    1.3410    0.1299    0.6077 C   0  0  0  0  0  0  0  0  0  0  0  0
    2.6589    0.5700    0.0841 C   0  0  0  0  0  0  0  0  0  0  0  0
    2.6348    1.9182   -0.1752 F   0  0  0  0  0  0  0  0  0  0  0  0
    3.0219   -0.0584   -1.0917 F   0  0  0  0  0  0  0  0  0  0  0  0
    3.6603    0.3662    1.0166 F   0  0  0  0  0  0  0  0  0  0  0  0
    1.3374   -1.2541    1.1679 C   0  0  0  0  0  0  0  0  0  0  0  0
    1.3774   -2.2972    0.1745 N   0  0  0  0  0  0  0  0  0  0  0  0
    0.0068    3.4307    0.4405 H   0  0  0  0  0  0  0  0  0  0  0  0
    0.7470    2.2191   -1.2691 H   0  0  0  0  0  0  0  0  0  0  0  0
   -0.9669    1.8486   -1.2642 H   0  0  0  0  0  0  0  0  0  0  0  0
    0.2859   -0.2494   -1.2565 H   0  0  0  0  0  0  0  0  0  0  0  0
   -1.2388    0.3079    1.3750 H   0  0  0  0  0  0  0  0  0  0  0  0
   -0.9580   -1.2847    0.6614 H   0  0  0  0  0  0  0  0  0  0  0  0
   -3.6856   -1.6062    0.1106 H   0  0  0  0  0  0  0  0  0  0  0  0
   -3.5060   -0.2342    1.3308 H   0  0  0  0  0  0  0  0  0  0  0  0
   -4.4371   -0.0090   -0.1893 H   0  0  0  0  0  0  0  0  0  0  0  0
    1.1186    0.8024    1.5107 H   0  0  0  0  0  0  0  0  0  0  0  0
    0.5200   -1.4679    1.8721 H   0  0  0  0  0  0  0  0  0  0  0  0
    2.2707   -1.3789    1.8331 H   0  0  0  0  0  0  0  0  0  0  0  0
    2.3858   -2.5391   -0.0024 H   0  0  0  0  0  0  0  0  0  0  0  0
    0.9255   -3.1811    0.4931 H   0  0  0  0  0  0  0  0  0  0  0  0
  1  2  1  0
  2  3  1  0
  3  4  1  0
  4  5  1  0
  5  6  2  0
  5  7  1  0
  3  8  1  0
  8  9  1  0
  9 10  1  0
  9 11  1  0
  9 12  1  0
  8 13  1  0
 13 14  1  0
  1 15  1  0
  2 16  1  0
  2 17  1  0
  3 18  1  0
  4 19  1  0
  4 20  1  0
  7 21  1  0
  7 22  1  0
  7 23  1  0
  8 24  1  0
 13 25  1  0
 13 26  1  0
 14 27  1  0
 14 28  1  0
M  END


